!VERSION
5
!SOLUTION, TYPE=HEATSTATIC
!BOUNDARY
1, 1, 3, 0.0
2, 2, 3, 0.0
3, 3, 3, 0.0
4, 1, 1, 0.0
4, 3, 3, 0.0
!STEP
1.0, 10.0
BOUNDARY, 1
LOAD, 1
#
!MATERIAL, NAME=M1
!ELASTIC
1.0, 0.0
!EXPANSION_COEFF, TYPE=FULL
0.0, 0.0, 0.0, 0.005, 0.0, 0.0
#
!SOLVER,METHOD=MUMPS,PRECOND=1,ITERLOG=NO,TIMELOG=YES,SCALING=NO
   1000,   1,   1
1.0e-8, 1.0, 0.0
   0.0, 0.0
#!SOLVER,METHOD=BICGSTAB,PRECOND=1,ITERLOG=NO,TIMELOG=NO
#  100,0,0
#1.0e-8,1,0
#
!WRITE,RESULT
!WRITE,VISUAL
#
!OUTPUT_VIS
DISP,ON
ACC,ON
VEL,ON
NSTRAIN,ON
NSTRESS,ON
NMISES,ON
PRINC_NSTRAIN,ON
PRINC_NSTRESS,ON
TEMPERATURE, ON
ESTRAIN,ON
!OUTPUT_RES
DISP,ON
NSTRAIN,OFF
NSTRESS,OFF
NMISES,OFF
ESTRAIN,ON
ESTRESS,OFF
EMISES,OFF
#
!VISUAL,metod=PSR
!surface_num=1
!surface 1
!output_type=COMPLETE_REORDER_AVS
!END
