!VERSION
3
!SOLUTION, TYPE=STATIC
!WRITE,RESULT
!WRITE,VISUAL
!OUTPUT_RES
REACTION, ON
ESTRAIN, ON
!OUTPUT_VIS
REACTION, ON
!BOUNDARY
1, 1, 2, 0.0
!BOUNDARY
1, 3, 3, 0.0
!BOUNDARY
2, 2, 2, 0.0
!BOUNDARY
2, 3, 3, 0.0
!BOUNDARY
3, 1, 1, 0.0
!BOUNDARY
3, 3, 3, 0.0
!TEMPERATURE
ALL, 0.0
!ORIENTATION, DEFINITION=COORDINATES, NAME=ORIENT1
-0.5861569874784595,-1.069940145714235,0.7073285222301978,-0.034644536639126644,0.22997090233895784,0.6158605650245746,0.0,0.0,0.0
!ORIENTATION, DEFINITION=COORDINATES, NAME=ORIENT2
1.0,0.0,0.0,0.0,1.0,0.0,0.0,0.0,0.0
!ORIENTATION, DEFINITION=COORDINATES, NAME=ORIENT3
1.0,0.0,0.0,0.0,1.0,0.0,0.0,0.0,0.0
!ORIENTATION, DEFINITION=COORDINATES, NAME=ORIENT4
1.0,0.0,0.0,0.0,1.0,0.0,0.0,0.0,0.0
!SECTION,SECNUM=1,ORIENTATION=ORIENT1
!SECTION,SECNUM=2,ORIENTATION=ORIENT2
!SECTION,SECNUM=3,ORIENTATION=ORIENT3
!SECTION,SECNUM=4,ORIENTATION=ORIENT4
!MATERIAL, NAME=M1
!EXPANSION_COEFF, TYPE=ORTHOTROPIC
0.0002,0.0003,0.001
!MATERIAL, NAME=M2
!EXPANSION_COEFF, TYPE=ORTHOTROPIC
0.0003,0.0004,0.002
!MATERIAL, NAME=M3
!EXPANSION_COEFF, TYPE=ORTHOTROPIC
0.0003,0.0004,0.003
!MATERIAL, NAME=M4
!EXPANSION_COEFF, TYPE=ORTHOTROPIC
0.0003,0.0004,0.004
!SOLVER,METHOD=CG,PRECOND=1,ITERLOG=YES,TIMELOG=YES
 10000, 1
 1.0e-08, 1.0, 0.0
!VISUAL, method=PSR
!surface_num = 1
!surface 1
!output_type = VTK
!END
