!VERSION
3
!SOLUTION, TYPE=STATIC
!WRITE,RESULT
!WRITE,VISUAL
!OUTPUT_RES
REACTION, ON
ESTRAIN, ON
ESTRESS, ON
EMISES, ON
!OUTPUT_VIS
REACTION, ON
NSTRAIN, ON
!BOUNDARY
1, 1, 3, 0.0
!BOUNDARY
2, 2, 3, 0.0
!BOUNDARY
3, 3, 3, 0.0
!TEMPERATURE
ALL, 0.0
!MATERIAL, NAME=M1
!EXPANSION_COEFF, TYPE=FULL
0.001, 0.002, 0.003, 0.001, 0.001, 0.001
!SOLVER,METHOD=CG,PRECOND=1,ITERLOG=YES,TIMELOG=YES
 10000, 1
 1.0e-08, 1.0, 0.0
!VISUAL, method=PSR
!surface_num = 1
!surface 1
!output_type = VTK
!END
