!VERSION
 3
#
!SOLUTION, TYPE=HEAT
!HEAT
 0.0
!WRITE,RESULT
!WRITE,VISUAL
#
!CFLUX
#XMAX, 1.0
XMAX, 0.018181818
#
#!CFLUX
#XMAX, 1.0
#XMAX, 55.
#XMAX, 77.78174593
#
!FIXTEMP
XMIN, 0.0
#
!MATERIAL, NAME=AL
!CONDUCTIVITY, TYPE=FULL, DEPENDENCIES=1
10.0, 100.0, 20.0, 0.0, 0.0, 0.0, 0.0
#
!SOLVER,METHOD=CG,PRECOND=1,ITERLOG=YES,TIMELOG=YES
 100000, 1
 1.0e-8, 1.0, 0.0
## Post Control
!VISUAL,metod=PSR
!surface_num=1
!surface 1
!output_type = COMPLETE_REORDER_AVS
!END
