!VERSION
3
!SOLUTION, TYPE=STATIC
!WRITE,RESULT
!WRITE,VISUAL
!OUTPUT_RES
REACTION, ON
ESTRAIN, ON
!OUTPUT_VIS
REACTION, ON
!BOUNDARY
1, 1, 2, 0.0
!BOUNDARY
1, 3, 3, 0.0
!BOUNDARY
2, 2, 2, 0.0
!BOUNDARY
2, 3, 3, 0.0
!BOUNDARY
3, 1, 1, 0.0
!BOUNDARY
3, 3, 3, 0.0
!TEMPERATURE
ALL, 0.0
!MATERIAL, NAME=M1
!EXPANSION_COEFF, TYPE=FULL
1.5000E-07,  1.5000E-07,  3.0000E-07, -1.0000E-07,  0.0000E+00,  0.0000E+00
!MATERIAL, NAME=M2
!EXPANSION_COEFF, TYPE=FULL
1.5000E-07,  1.5000E-07,  3.0000E-07, -1.0000E-07,  0.0000E+00,  0.0000E+00
!MATERIAL, NAME=M3
!EXPANSION_COEFF, TYPE=FULL
1.5000E-07,  1.5000E-07,  3.0000E-07, -1.0000E-07,  0.0000E+00,  0.0000E+00
!MATERIAL, NAME=M4
!EXPANSION_COEFF, TYPE=FULL
1.5000E-07,  1.5000E-07,  3.0000E-07, -1.0000E-07,  0.0000E+00,  0.0000E+00
!SOLVER,METHOD=CG,PRECOND=1,ITERLOG=YES,TIMELOG=YES
 10000, 1
 1.0e-08, 1.0, 0.0
!VISUAL, method=PSR
!surface_num = 1
!surface 1
!output_type = COMPLETE_REORDER_AVS
!END
