!VERSION
3
!SOLUTION, TYPE=STATIC
!WRITE,RESULT
!WRITE,VISUAL
!OUTPUT_RES
REACTION, ON
ESTRAIN, ON
!OUTPUT_VIS
REACTION, ON
!BOUNDARY
1, 1, 2, 0.0
!BOUNDARY
1, 3, 3, 0.0
!BOUNDARY
4, 2, 2, 0.0
!BOUNDARY
4, 3, 3, 0.0
!BOUNDARY
10, 1, 1, 0.0
!BOUNDARY
10, 3, 3, 0.0
!TEMPERATURE
ALL, 0.0
!ORIENTATION, DEFINITION=COORDINATES, NAME=ORIENT1
-0.9884675481612987,1.3478041128017486,-0.7450023441250547,-1.4016720094466206,-0.4112347186675739,0.3727856656776176,0.0,0.0,0.0
!ORIENTATION, DEFINITION=COORDINATES, NAME=ORIENT2
-0.13950136473324926,0.5751480458881635,0.667785328867618,0.5555566659737994,2.202262569595242,-0.3832329171727432,0.0,0.0,0.0
!ORIENTATION, DEFINITION=COORDINATES, NAME=ORIENT3
-2.0779757037324846,0.3479414256507412,0.5503556419565497,-0.9390817648412794,0.1986047872674669,1.7507055617757319,0.0,0.0,0.0
!ORIENTATION, DEFINITION=COORDINATES, NAME=ORIENT4
1.5654728225852939,-0.1376805076225606,1.1364402929255597,0.8514690520608146,-1.0633975361541685,-0.47071673684082094,0.0,0.0,0.0
!ORIENTATION, DEFINITION=COORDINATES, NAME=ORIENT5
0.8284901598377596,0.09830460298868371,-0.5991096780991998,0.10617081512266863,-0.9100134724513994,-1.7895807276108586,0.0,0.0,0.0
!ORIENTATION, DEFINITION=COORDINATES, NAME=ORIENT6
-0.8724211705612449,1.1096255060283169,-0.8926742632993897,-0.24832553455371661,-0.35023649584836375,0.9100360443190758,0.0,0.0,0.0
!ORIENTATION, DEFINITION=COORDINATES, NAME=ORIENT7
-0.048918398182777975,0.3641741012573895,-0.6402508646380082,0.08201726102059814,-1.0249699713409701,0.798305616404551,0.0,0.0,0.0
!ORIENTATION, DEFINITION=COORDINATES, NAME=ORIENT8
0.4254829867412199,0.3903267487118035,1.0866761027343423,-2.2253219287036625,-1.0538260410507532,0.023762042690643834,0.0,0.0,0.0
!SECTION,SECNUM=1,ORIENTATION=ORIENT1
!SECTION,SECNUM=2,ORIENTATION=ORIENT2
!SECTION,SECNUM=3,ORIENTATION=ORIENT3
!SECTION,SECNUM=4,ORIENTATION=ORIENT4
!SECTION,SECNUM=5,ORIENTATION=ORIENT5
!SECTION,SECNUM=6,ORIENTATION=ORIENT6
!SECTION,SECNUM=7,ORIENTATION=ORIENT7
!SECTION,SECNUM=8,ORIENTATION=ORIENT8
!MATERIAL, NAME=M1
!EXPANSION_COEFF, TYPE=ORTHOTROPIC
0.0009255062766853945,0.0008214416459145618,0.0010902950052688117
!MATERIAL, NAME=M2
!EXPANSION_COEFF, TYPE=ORTHOTROPIC
0.0010565198294175484,0.000916953848390449,0.0008647735415002622
!MATERIAL, NAME=M3
!EXPANSION_COEFF, TYPE=ORTHOTROPIC
0.0010728257196927445,0.001108721969965044,0.0010780635430776959
!MATERIAL, NAME=M4
!EXPANSION_COEFF, TYPE=ORTHOTROPIC
0.0010768238566605081,0.0010044182997644314,0.0008208872163217102
!MATERIAL, NAME=M5
!EXPANSION_COEFF, TYPE=ORTHOTROPIC
0.0010223012182811137,0.0010303914862839216,0.0009506313591054269
!MATERIAL, NAME=M6
!EXPANSION_COEFF, TYPE=ORTHOTROPIC
0.001094024534371394,0.0010791541460449174,0.00093847963572312
!MATERIAL, NAME=M7
!EXPANSION_COEFF, TYPE=ORTHOTROPIC
0.0008852234501217349,0.001207807327937615,0.0009336697149128618
!MATERIAL, NAME=M8
!EXPANSION_COEFF, TYPE=ORTHOTROPIC
0.0009260727010027964,0.000969551930442003,0.0009553145001006513
!SOLVER,METHOD=CG,PRECOND=1,ITERLOG=YES,TIMELOG=YES
 10000, 1
 1.0e-08, 1.0, 0.0
!VISUAL, method=PSR
!surface_num = 1
!surface 1
!output_type = COMPLETE_REORDER_AVS
!END