!VERSION
3
!SOLUTION, TYPE=STATIC
!WRITE,RESULT
!WRITE,VISUAL
!OUTPUT_RES
REACTION, ON
ESTRAIN, ON
!OUTPUT_VIS
REACTION, ON
!BOUNDARY
1, 1, 2, 0.0
!BOUNDARY
1, 3, 3, 0.0
!BOUNDARY
5, 2, 2, 0.0
!BOUNDARY
5, 3, 3, 0.0
!BOUNDARY
17, 1, 1, 0.0
!BOUNDARY
17, 3, 3, 0.0
!TEMPERATURE
ALL, 0.0
!ORIENTATION, DEFINITION=COORDINATES, NAME=ORIENT1
-0.321817627884689,0.031096831159634547,-0.12330966758441009,-1.0732706283179694,0.04247805476259145,1.1832998020687326,0.0,0.0,0.0
!ORIENTATION, DEFINITION=COORDINATES, NAME=ORIENT2
-0.2226881565246375,-0.9922127468964139,-0.16336860374083437,0.8013070571242205,-0.07626372990115696,1.1379944324611218,0.0,0.0,0.0
!ORIENTATION, DEFINITION=COORDINATES, NAME=ORIENT3
-0.05426995785113931,-1.317603537617894,0.14846843637944312,1.3387520251050953,0.8224110493229911,0.7149958568386037,0.0,0.0,0.0
!ORIENTATION, DEFINITION=COORDINATES, NAME=ORIENT4
0.9775295588668439,0.05452395461752123,-0.9188654242968065,-1.3372963088985925,0.9322357605145284,0.4613672368897676,0.0,0.0,0.0
!ORIENTATION, DEFINITION=COORDINATES, NAME=ORIENT5
0.8889754814967029,-0.01653780108046729,-0.30392243531990704,0.9096706877172824,1.2938058952580571,-1.5670046262191255,0.0,0.0,0.0
!ORIENTATION, DEFINITION=COORDINATES, NAME=ORIENT6
-0.12961510098402332,1.3901358931541448,-0.6117236255207193,0.9103533904385981,0.3290461973508177,-1.272847541951054,0.0,0.0,0.0
!ORIENTATION, DEFINITION=COORDINATES, NAME=ORIENT7
-0.1662617579053752,0.29510571383288303,-0.1772700748995885,-0.588529600230547,1.4683547664249756,-0.7794047890162157,0.0,0.0,0.0
!ORIENTATION, DEFINITION=COORDINATES, NAME=ORIENT8
0.5379540135241138,1.1850564609389407,1.1450296816118612,-0.22779347303081715,0.49422568785787246,-0.5485354651872035,0.0,0.0,0.0
!ORIENTATION, DEFINITION=COORDINATES, NAME=ORIENT9
0.4354930542749187,0.8527568369649249,-0.03377780900403008,-1.7752058333134608,0.41664133359520616,0.5942679747960262,0.0,0.0,0.0
!ORIENTATION, DEFINITION=COORDINATES, NAME=ORIENT10
-0.7312701704272921,-0.3201310170855358,0.287726743494495,-0.15787744259342418,1.1385646003771142,-0.09430699277800385,0.0,0.0,0.0
!ORIENTATION, DEFINITION=COORDINATES, NAME=ORIENT11
0.10455591035883653,-1.5299758185259793,-0.47635404250028685,-0.34781286933909433,0.6852553092966324,-0.22758944770762513,0.0,0.0,0.0
!ORIENTATION, DEFINITION=COORDINATES, NAME=ORIENT12
0.573241719994688,0.052978063381477127,-0.17094010677128696,0.4589605700697106,-1.84184051841448,0.0320229017220701,0.0,0.0,0.0
!ORIENTATION, DEFINITION=COORDINATES, NAME=ORIENT13
-1.2007368534741056,-0.7693185473385604,-0.42235901860665337,0.4074758469215276,0.7053694618095264,-1.9442551244783999,0.0,0.0,0.0
!ORIENTATION, DEFINITION=COORDINATES, NAME=ORIENT14
-0.4024902887045253,0.4096132378213711,-1.8860905186258248,1.4826811653762622,-0.6275713445770917,-0.7223128188173413,0.0,0.0,0.0
!ORIENTATION, DEFINITION=COORDINATES, NAME=ORIENT15
1.140865025180941,-0.13199689369460535,0.09148208410009652,-0.2610277182414553,0.41364760659068617,-0.5094882780791116,0.0,0.0,0.0
!ORIENTATION, DEFINITION=COORDINATES, NAME=ORIENT16
0.4738974239300135,0.5690313871586887,-0.15888152427424393,1.4771970669224115,-0.4816302091698734,-0.05523675742659614,0.0,0.0,0.0
!ORIENTATION, DEFINITION=COORDINATES, NAME=ORIENT17
-0.9643397543522657,-1.4179403287622692,0.11639770127507909,1.159140899776613,0.7045472350359306,-0.578162939391289,0.0,0.0,0.0
!ORIENTATION, DEFINITION=COORDINATES, NAME=ORIENT18
-0.17553866577374563,-0.626762583731495,-0.6385176607592686,-0.10986178262090443,-0.24541318076440177,2.024139375369968,0.0,0.0,0.0
!SECTION,SECNUM=1,ORIENTATION=ORIENT1
!SECTION,SECNUM=2,ORIENTATION=ORIENT2
!SECTION,SECNUM=3,ORIENTATION=ORIENT3
!SECTION,SECNUM=4,ORIENTATION=ORIENT4
!SECTION,SECNUM=5,ORIENTATION=ORIENT5
!SECTION,SECNUM=6,ORIENTATION=ORIENT6
!SECTION,SECNUM=7,ORIENTATION=ORIENT7
!SECTION,SECNUM=8,ORIENTATION=ORIENT8
!SECTION,SECNUM=9,ORIENTATION=ORIENT9
!SECTION,SECNUM=10,ORIENTATION=ORIENT10
!SECTION,SECNUM=11,ORIENTATION=ORIENT11
!SECTION,SECNUM=12,ORIENTATION=ORIENT12
!SECTION,SECNUM=13,ORIENTATION=ORIENT13
!SECTION,SECNUM=14,ORIENTATION=ORIENT14
!SECTION,SECNUM=15,ORIENTATION=ORIENT15
!SECTION,SECNUM=16,ORIENTATION=ORIENT16
!SECTION,SECNUM=17,ORIENTATION=ORIENT17
!SECTION,SECNUM=18,ORIENTATION=ORIENT18
!MATERIAL, NAME=M1
!EXPANSION_COEFF, TYPE=ORTHOTROPIC
0.0021282459009321314,0.0020486333551709692,0.0023371767737772283
!MATERIAL, NAME=M2
!EXPANSION_COEFF, TYPE=ORTHOTROPIC
0.002072095637674499,0.0021335144348390055,0.002069715253268166
!MATERIAL, NAME=M3
!EXPANSION_COEFF, TYPE=ORTHOTROPIC
0.0023107332124617875,0.0021928403325999035,0.002133617304060497
!MATERIAL, NAME=M4
!EXPANSION_COEFF, TYPE=ORTHOTROPIC
0.0020000874829435526,0.002173759348545837,0.0023894448640780605
!MATERIAL, NAME=M5
!EXPANSION_COEFF, TYPE=ORTHOTROPIC
0.0018557024969135714,0.0022426725639293228,0.0017566763689937034
!MATERIAL, NAME=M6
!EXPANSION_COEFF, TYPE=ORTHOTROPIC
0.0021720066348542115,0.0019956656461222787,0.0016931877907548868
!MATERIAL, NAME=M7
!EXPANSION_COEFF, TYPE=ORTHOTROPIC
0.0020900572377054146,0.0020530891785781953,0.0021533743278082944
!MATERIAL, NAME=M8
!EXPANSION_COEFF, TYPE=ORTHOTROPIC
0.001826437310581905,0.0016053756839210069,0.002085833369043588
!MATERIAL, NAME=M9
!EXPANSION_COEFF, TYPE=ORTHOTROPIC
0.0021051989050516365,0.001993916298390031,0.0021918401408022523
!MATERIAL, NAME=M10
!EXPANSION_COEFF, TYPE=ORTHOTROPIC
0.0019545703317525157,0.0016276802123054823,0.002128040173437506
!MATERIAL, NAME=M11
!EXPANSION_COEFF, TYPE=ORTHOTROPIC
0.002178003033278074,0.0023894269057884825,0.0019973333556596528
!MATERIAL, NAME=M12
!EXPANSION_COEFF, TYPE=ORTHOTROPIC
0.0020183860050639033,0.002223931649741592,0.0016848582466879151
!MATERIAL, NAME=M13
!EXPANSION_COEFF, TYPE=ORTHOTROPIC
0.001986383866654199,0.0017105271700109284,0.0018185797186073183
!MATERIAL, NAME=M14
!EXPANSION_COEFF, TYPE=ORTHOTROPIC
0.0019738517675462583,0.001860887557998311,0.0016983722029705497
!MATERIAL, NAME=M15
!EXPANSION_COEFF, TYPE=ORTHOTROPIC
0.0021029833003186997,0.00218376329961372,0.0019643428714525846
!MATERIAL, NAME=M16
!EXPANSION_COEFF, TYPE=ORTHOTROPIC
0.0020556784129295777,0.002232371684830126,0.0019422016149217482
!MATERIAL, NAME=M17
!EXPANSION_COEFF, TYPE=ORTHOTROPIC
0.0021346115639062258,0.002065426346577916,0.001725306132025297
!MATERIAL, NAME=M18
!EXPANSION_COEFF, TYPE=ORTHOTROPIC
0.0022295631246923926,0.0018225600281747151,0.002091665376552616
!SOLVER,METHOD=CG,PRECOND=1,ITERLOG=YES,TIMELOG=YES
 10000, 1
 1.0e-08, 1.0, 0.0
!VISUAL, method=PSR
!surface_num = 1
!surface 1
!output_type = COMPLETE_REORDER_AVS
!END