!VERSION
3
!SOLUTION, TYPE=STATIC
!WRITE,RESULT
!WRITE,VISUAL
!OUTPUT_RES
REACTION, ON
ESTRAIN, ON
!OUTPUT_VIS
REACTION, ON
!BOUNDARY
1, 1, 1, 1.1
2, 1, 1, 2.1
3, 1, 1, 3.1
4, 1, 1, 4.1
1, 2, 2, 1.2
2, 2, 2, 2.2
3, 2, 2, 3.2
4, 2, 2, 4.2
1, 3, 3, 1.3
2, 3, 3, 2.3
3, 3, 3, 3.3
4, 3, 3, 4.3
!TEMPERATURE
ALL, 0.0
!ORIENTATION, DEFINITION=COORDINATES, NAME=ORIENT1
-0.5861569874784595,-1.069940145714235,0.7073285222301978,-0.034644536639126644,0.22997090233895784,0.6158605650245746,0.0,0.0,0.0
!SECTION,SECNUM=1,ORIENTATION=ORIENT1
!MATERIAL, NAME=M1
!EXPANSION_COEFF, TYPE=ORTHOTROPIC
0.000894456445718455,0.001038152703212071,0.0008456605096110242
!SOLVER,METHOD=CG,PRECOND=1,ITERLOG=YES,TIMELOG=YES
 10000, 1
 1.0e-08, 1.0, 0.0
!VISUAL, method=PSR
!surface_num = 1
!surface 1
!output_type = COMPLETE_REORDER_AVS
!END
