!VERSION
3
!SOLUTION, TYPE=STATIC
!WRITE,RESULT
!WRITE,VISUAL
!OUTPUT_RES
REACTION, ON
ESTRAIN, ON
ITEMP, ON
ISTRAIN, ON
!OUTPUT_VIS
REACTION, ON
!BOUNDARY
1, 1, 2, 0.0
!BOUNDARY
1, 3, 3, 0.0
!BOUNDARY
2, 2, 2, 0.0
!BOUNDARY
2, 3, 3, 0.0
!BOUNDARY
3, 1, 1, 0.0
!BOUNDARY
3, 3, 3, 0.0
!TEMPERATURE
ALL, 0.0
!MATERIAL, NAME=M1
!EXPANSION_COEFF, TYPE=FULL
1.1E-3, 1.2E-3, 1.3E-3, 1.4E-3, 1.5E-3, 1.6E-3
!MATERIAL, NAME=M2
!EXPANSION_COEFF, TYPE=FULL
2.1E-3, 2.2E-3, 2.3E-3, 2.4E-3, 2.5E-3, 2.6E-3
!MATERIAL, NAME=M3
!EXPANSION_COEFF, TYPE=FULL
3.1E-3, 3.2E-3, 3.3E-3, 3.4E-3, 3.5E-3, 3.6E-3
!MATERIAL, NAME=M4
!EXPANSION_COEFF, TYPE=FULL
4.1E-3, 4.2E-3, 4.3E-3, 4.4E-3, 4.5E-3, 4.6E-3
!SOLVER,METHOD=CG,PRECOND=1,ITERLOG=YES,TIMELOG=YES
 10000, 1
 1.0e-08, 1.0, 0.0
!VISUAL, method=PSR
!surface_num = 1
!surface 1
!output_type = COMPLETE_REORDER_AVS
!END
