!VERSION
3
!SOLUTION, TYPE=STATIC
!WRITE,RESULT
!WRITE,VISUAL
!OUTPUT_RES
REACTION, ON
ESTRAIN, ON
ESTRESS, ON
EMISES, ON
!OUTPUT_VIS
REACTION, ON
NSTRAIN, ON
!BOUNDARY
1, 1, 3, 0.0
!BOUNDARY
2, 2, 3, 1.0
!BOUNDARY
3, 3, 3, -1.0
!TEMPERATURE
ALL, 0.0
!ORIENTATION, DEFINITION=COORDINATES, NAME=ORIENT1
0.024767077205754086,0.3920046583225272,0.39343221896213765,-0.6143822108570163,1.9159004529686463,-1.3560190673207662,0.0,0.0,0.0
!ORIENTATION, DEFINITION=COORDINATES, NAME=ORIENT2
-0.5507555559853339,1.0875686817748702,0.9523091815809357,0.7961043196361649,1.4996034939516303,1.5948473551761138,0.0,0.0,0.0
!SECTION,SECNUM=1,ORIENTATION=ORIENT1
!SECTION,SECNUM=2,ORIENTATION=ORIENT2
!MATERIAL, NAME=M1
!EXPANSION_COEFF, TYPE=ORTHOTROPIC
0.001, 0.002, 0.003
!MATERIAL, NAME=M2
!EXPANSION_COEFF, TYPE=ORTHOTROPIC
-0.001, 0.004, 0.019
!SOLVER,METHOD=CG,PRECOND=1,ITERLOG=YES,TIMELOG=YES
 10000, 1
 1.0e-08, 1.0, 0.0
!VISUAL, method=PSR
!surface_num = 1
!surface 1
!output_type = COMPLETE_REORDER_AVS
!END
